
*** ChampSim Multicore Out-of-Order Simulator ***

Warmup Instructions: 10000000
Simulation Instructions: 10000000
Number of CPUs: 1
LLC sets: 2048
LLC ways: 16
Off-chip DRAM Size: 4096 MB Channels: 1 Width: 64-bit Data Rate: 3200 MT/s

CPU 0 runs ../traces//cryptominisat-high-30K-2423B.champsimtrace.xz
CPU 0 Bimodal branch predictor
bimodal-no-ipcp_b-ipcp_b-ipcp-lru-1core: src/cache.cc:1432: virtual int CACHE::add_rq(PACKET*): Assertion `0' failed.
