
*** ChampSim Multicore Out-of-Order Simulator ***

Warmup Instructions: 20000000
Simulation Instructions: 30000000
Number of CPUs: 1
LLC sets: 2048
LLC ways: 16
Off-chip DRAM Size: 4096 MB Channels: 1 Width: 64-bit Data Rate: 3200 MT/s

CPU 0 runs ../traces//607.cactuBSSN_s-4248B.champsimtrace.xz
CPU 0 Bimodal branch predictor
CPU 0 L2C next line prefetcher
LLC Next Line Prefetcher
Heartbeat CPU 0 instructions: 10000000 cycles: 3047606 heartbeat IPC: 3.28126 cumulative IPC: 3.28126 (Simulation time: 0 hr 0 min 16 sec) 
Heartbeat CPU 0 instructions: 20000002 cycles: 6095175 heartbeat IPC: 3.2813 cumulative IPC: 3.28128 (Simulation time: 0 hr 0 min 32 sec) 

Warmup complete CPU 0 instructions: 20000002 cycles: 6095175 (Simulation time: 0 hr 0 min 32 sec) 

Heartbeat CPU 0 instructions: 30000000 cycles: 12968567 heartbeat IPC: 1.45489 cumulative IPC: 1.45489 (Simulation time: 0 hr 0 min 43 sec) 
Heartbeat CPU 0 instructions: 40000003 cycles: 19841362 heartbeat IPC: 1.45501 cumulative IPC: 1.45495 (Simulation time: 0 hr 0 min 54 sec) 
Heartbeat CPU 0 instructions: 50000001 cycles: 26714402 heartbeat IPC: 1.45496 cumulative IPC: 1.45495 (Simulation time: 0 hr 1 min 5 sec) 
Finished CPU 0 instructions: 30000003 cycles: 20619228 cumulative IPC: 1.45495 (Simulation time: 0 hr 1 min 5 sec) 

ChampSim completed all CPUs

Region of Interest Statistics

CPU 0 cumulative IPC: 1.45495 instructions: 30000003 cycles: 20619228
L1D TOTAL     ACCESS:    5484730  HIT:    5456389  MISS:      28341
L1D LOAD      ACCESS:    4572417  HIT:    4571986  MISS:        431
L1D RFO       ACCESS:     884403  HIT:     884403  MISS:          0
L1D PREFETCH  ACCESS:      27910  HIT:          0  MISS:      27910
L1D WRITEBACK ACCESS:          0  HIT:          0  MISS:          0
L1D PREFETCH  REQUESTED:      27910  ISSUED:      27910  USEFUL:      27126  USELESS:        784
L1D AVERAGE MISS LATENCY: 114.681 cycles
L1I TOTAL     ACCESS:    4855115  HIT:    4855115  MISS:          0
L1I LOAD      ACCESS:    4855115  HIT:    4855115  MISS:          0
L1I RFO       ACCESS:          0  HIT:          0  MISS:          0
L1I PREFETCH  ACCESS:          0  HIT:          0  MISS:          0
L1I WRITEBACK ACCESS:          0  HIT:          0  MISS:          0
L1I PREFETCH  REQUESTED:          0  ISSUED:          0  USEFUL:          0  USELESS:          0
L1I AVERAGE MISS LATENCY: -nan cycles
L2C TOTAL     ACCESS:      28341  HIT:        784  MISS:      27557
L2C LOAD      ACCESS:        431  HIT:          0  MISS:        431
L2C RFO       ACCESS:          0  HIT:          0  MISS:          0
L2C PREFETCH  ACCESS:      27910  HIT:        784  MISS:      27126
L2C WRITEBACK ACCESS:          0  HIT:          0  MISS:          0
L2C PREFETCH  REQUESTED:        431  ISSUED:        431  USEFUL:          0  USELESS:      27126
L2C AVERAGE MISS LATENCY: 102.485 cycles
LLC TOTAL     ACCESS:      27557  HIT:          0  MISS:      27557
LLC LOAD      ACCESS:        431  HIT:          0  MISS:        431
LLC RFO       ACCESS:          0  HIT:          0  MISS:          0
LLC PREFETCH  ACCESS:      27126  HIT:          0  MISS:      27126
LLC WRITEBACK ACCESS:          0  HIT:          0  MISS:          0
LLC PREFETCH  REQUESTED:        431  ISSUED:        431  USEFUL:          0  USELESS:      12983
LLC AVERAGE MISS LATENCY: 72.4846 cycles
Major fault: 0 Minor fault: 724
=== CPU 0 L1D Prefetcher Statistics ===
[MLOP] History of tracked zone:
IIIIIIIIIIIIIIIIIIIIIIIIIIIIIIIIIIIIIIIIIIIIIIIIIIIIIIIIIIIIIIII
A111IIIIIIIIIIIIIIIIIIIIIIIIIIIIIIIIIIIIIIIIIIIIIIIIIIIIIIIIIIII
AA111IIIIIIIIIIIIIIIIIIIIIIIIIIIIIIIIIIIIIIIIIIIIIIIIIIIIIIIIIII
AAA111IIIIIIIIIIIIIIIIIIIIIIIIIIIIIIIIIIIIIIIIIIIIIIIIIIIIIIIIII
AAAA111IIIIIIIIIIIIIIIIIIIIIIIIIIIIIIIIIIIIIIIIIIIIIIIIIIIIIIIII
AAAAA111IIIIIIIIIIIIIIIIIIIIIIIIIIIIIIIIIIIIIIIIIIIIIIIIIIIIIIII
AAAAAA111IIIIIIIIIIIIIIIIIIIIIIIIIIIIIIIIIIIIIIIIIIIIIIIIIIIIIII
AAAAAAA111IIIIIIIIIIIIIIIIIIIIIIIIIIIIIIIIIIIIIIIIIIIIIIIIIIIIII
AAAAAAAA111IIIIIIIIIIIIIIIIIIIIIIIIIIIIIIIIIIIIIIIIIIIIIIIIIIIII
AAAAAAAAA111IIIIIIIIIIIIIIIIIIIIIIIIIIIIIIIIIIIIIIIIIIIIIIIIIIII
AAAAAAAAAA111IIIIIIIIIIIIIIIIIIIIIIIIIIIIIIIIIIIIIIIIIIIIIIIIIII
AAAAAAAAAAA111IIIIIIIIIIIIIIIIIIIIIIIIIIIIIIIIIIIIIIIIIIIIIIIIII
AAAAAAAAAAAA111IIIIIIIIIIIIIIIIIIIIIIIIIIIIIIIIIIIIIIIIIIIIIIIII
AAAAAAAAAAAAA111IIIIIIIIIIIIIIIIIIIIIIIIIIIIIIIIIIIIIIIIIIIIIIII
AAAAAAAAAAAAAA111IIIIIIIIIIIIIIIIIIIIIIIIIIIIIIIIIIIIIIIIIIIIIII
AAAAAAAAAAAAAAA111IIIIIIIIIIIIIIIIIIIIIIIIIIIIIIIIIIIIIIIIIIIIII
AAAAAAAAAAAAAAAA111IIIIIIIIIIIIIIIIIIIIIIIIIIIIIIIIIIIIIIIIIIIII
AAAAAAAAAAAAAAAAA111IIIIIIIIIIIIIIIIIIIIIIIIIIIIIIIIIIIIIIIIIIII
AAAAAAAAAAAAAAAAAA111IIIIIIIIIIIIIIIIIIIIIIIIIIIIIIIIIIIIIIIIIII
AAAAAAAAAAAAAAAAAAA111IIIIIIIIIIIIIIIIIIIIIIIIIIIIIIIIIIIIIIIIII
AAAAAAAAAAAAAAAAAAAA111IIIIIIIIIIIIIIIIIIIIIIIIIIIIIIIIIIIIIIIII
AAAAAAAAAAAAAAAAAAAAA111IIIIIIIIIIIIIIIIIIIIIIIIIIIIIIIIIIIIIIII
AAAAAAAAAAAAAAAAAAAAAA111IIIIIIIIIIIIIIIIIIIIIIIIIIIIIIIIIIIIIII
AAAAAAAAAAAAAAAAAAAAAAA111IIIIIIIIIIIIIIIIIIIIIIIIIIIIIIIIIIIIII
AAAAAAAAAAAAAAAAAAAAAAAA111IIIIIIIIIIIIIIIIIIIIIIIIIIIIIIIIIIIII
AAAAAAAAAAAAAAAAAAAAAAAAA111IIIIIIIIIIIIIIIIIIIIIIIIIIIIIIIIIIII
AAAAAAAAAAAAAAAAAAAAAAAAAA111IIIIIIIIIIIIIIIIIIIIIIIIIIIIIIIIIII
AAAAAAAAAAAAAAAAAAAAAAAAAAA111IIIIIIIIIIIIIIIIIIIIIIIIIIIIIIIIII
AAAAAAAAAAAAAAAAAAAAAAAAAAAA111IIIIIIIIIIIIIIIIIIIIIIIIIIIIIIIII
AAAAAAAAAAAAAAAAAAAAAAAAAAAAA111IIIIIIIIIIIIIIIIIIIIIIIIIIIIIIII
AAAAAAAAAAAAAAAAAAAAAAAAAAAAAA111IIIIIIIIIIIIIIIIIIIIIIIIIIIIIII
AAAAAAAAAAAAAAAAAAAAAAAAAAAAAAA111IIIIIIIIIIIIIIIIIIIIIIIIIIIIII
AAAAAAAAAAAAAAAAAAAAAAAAAAAAAAAA111IIIIIIIIIIIIIIIIIIIIIIIIIIIII
AAAAAAAAAAAAAAAAAAAAAAAAAAAAAAAAA111IIIIIIIIIIIIIIIIIIIIIIIIIIII
AAAAAAAAAAAAAAAAAAAAAAAAAAAAAAAAAA111IIIIIIIIIIIIIIIIIIIIIIIIIII
AAAAAAAAAAAAAAAAAAAAAAAAAAAAAAAAAAA111IIIIIIIIIIIIIIIIIIIIIIIIII
AAAAAAAAAAAAAAAAAAAAAAAAAAAAAAAAAAAA111IIIIIIIIIIIIIIIIIIIIIIIII
AAAAAAAAAAAAAAAAAAAAAAAAAAAAAAAAAAAAA111IIIIIIIIIIIIIIIIIIIIIIII
AAAAAAAAAAAAAAAAAAAAAAAAAAAAAAAAAAAAAA111IIIIIIIIIIIIIIIIIIIIIII
AAAAAAAAAAAAAAAAAAAAAAAAAAAAAAAAAAAAAAA111IIIIIIIIIIIIIIIIIIIIII
AAAAAAAAAAAAAAAAAAAAAAAAAAAAAAAAAAAAAAAA111IIIIIIIIIIIIIIIIIIIII
AAAAAAAAAAAAAAAAAAAAAAAAAAAAAAAAAAAAAAAAA111IIIIIIIIIIIIIIIIIIII
AAAAAAAAAAAAAAAAAAAAAAAAAAAAAAAAAAAAAAAAAA111IIIIIIIIIIIIIIIIIII
AAAAAAAAAAAAAAAAAAAAAAAAAAAAAAAAAAAAAAAAAAA111IIIIIIIIIIIIIIIIII
AAAAAAAAAAAAAAAAAAAAAAAAAAAAAAAAAAAAAAAAAAAA111IIIIIIIIIIIIIIIII
AAAAAAAAAAAAAAAAAAAAAAAAAAAAAAAAAAAAAAAAAAAAA111IIIIIIIIIIIIIIII
AAAAAAAAAAAAAAAAAAAAAAAAAAAAAAAAAAAAAAAAAAAAAA111IIIIIIIIIIIIIII
AAAAAAAAAAAAAAAAAAAAAAAAAAAAAAAAAAAAAAAAAAAAAAA111IIIIIIIIIIIIII
AAAAAAAAAAAAAAAAAAAAAAAAAAAAAAAAAAAAAAAAAAAAAAAA111IIIIIIIIIIIII
AAAAAAAAAAAAAAAAAAAAAAAAAAAAAAAAAAAAAAAAAAAAAAAAA111IIIIIIIIIIII
AAAAAAAAAAAAAAAAAAAAAAAAAAAAAAAAAAAAAAAAAAAAAAAAAA111IIIIIIIIIII
AAAAAAAAAAAAAAAAAAAAAAAAAAAAAAAAAAAAAAAAAAAAAAAAAAA111IIIIIIIIII
AAAAAAAAAAAAAAAAAAAAAAAAAAAAAAAAAAAAAAAAAAAAAAAAAAAA111IIIIIIIII
AAAAAAAAAAAAAAAAAAAAAAAAAAAAAAAAAAAAAAAAAAAAAAAAAAAAA111IIIIIIII
AAAAAAAAAAAAAAAAAAAAAAAAAAAAAAAAAAAAAAAAAAAAAAAAAAAAAA111IIIIIII
AAAAAAAAAAAAAAAAAAAAAAAAAAAAAAAAAAAAAAAAAAAAAAAAAAAAAAA111IIIIII
AAAAAAAAAAAAAAAAAAAAAAAAAAAAAAAAAAAAAAAAAAAAAAAAAAAAAAAA111IIIII
AAAAAAAAAAAAAAAAAAAAAAAAAAAAAAAAAAAAAAAAAAAAAAAAAAAAAAAAA111IIII
AAAAAAAAAAAAAAAAAAAAAAAAAAAAAAAAAAAAAAAAAAAAAAAAAAAAAAAAAA111III
AAAAAAAAAAAAAAAAAAAAAAAAAAAAAAAAAAAAAAAAAAAAAAAAAAAAAAAAAAA111II
AAAAAAAAAAAAAAAAAAAAAAAAAAAAAAAAAAAAAAAAAAAAAAAAAAAAAAAAAAAA111I
AAAAAAAAAAAAAAAAAAAAAAAAAAAAAAAAAAAAAAAAAAAAAAAAAAAAAAAAAAAAA111
AAAAAAAAAAAAAAAAAAAAAAAAAAAAAAAAAAAAAAAAAAAAAAAAAAAAAAAAAAAAAA11
AAAAAAAAAAAAAAAAAAAAAAAAAAAAAAAAAAAAAAAAAAAAAAAAAAAAAAAAAAAAAAA1
AAAAAAAAAAAAAAAAAAAAAAAAAAAAAAAAAAAAAAAAAAAAAAAAAAAAAAAAAAAAAAAA
AAAAAAAAAAAAAAAAAAAAAAAAAAAAAAAAAAAAAAAAAAAAAAAAAAAIAAAAAAAAAAAA
AAAAAAAAAAAAAAAAAAAAAAAAAAAAAAAAAAAAAAAAAAAAAAAAAAAIIAAAAAAAAAAA
AAAAAAAAAAAAAAAAAAAAAAAAAAAAAAAAAAAAAAAAAAAAAAAAAAAIIIAAAAAAAAAA
AAAAAAAAIAAAAAAAAAAAAAAAAAAAAAAAAAAAAAAAAAAAAAAAAAAIIIAAAAAAAAAA
AAAAAAAAIIAAAAAAAAAAAAAAAAAAAAAAAAAAAAAAAAAAAAAAAAAIIIAAAAAAAAAA
AAAAAAAAIIIAAAAAAAAAAAAAAAAAAAAAAAAAAAAAAAAAAAAAAAAIIIAAAAAAAAAA
AAAAAAAAIIIIAAAAAAAAAAAAAAAAAAAAAAAAAAAAAAAAAAAAAAAIIIAAAAAAAAAA
AAAAAAAAIIIIAAAAAAIAAAAAAAAAAAAAAAAAAAAAAAAAAAAAAAAIIIAAAAAAAAAA
AAAAAAAAIIIIAAAAAAIIAAAAAAAAAAAAAAAAAAAAAAAAAAAAAAAIIIAAAAAAAAAA
AAAAAAAAIIIIAAAAAAIIIAAAAAAAAAAAAAAAAAAAAAAAAAAAAAAIIIAAAAAAAAAA
AAAAAAAAIIIIAAAAAAIIIIAAAAAAAAAAAAAAAAAAAAAAAAAAAAAIIIAAAAAAAAAA
AAAAAAAAIIIIAAAAAAIIIIAAAAAAAAAAAAAAAIAAAAAAAAAAAAAIIIAAAAAAAAAA
AAAAAAAAIIIIAAAAAAIIIIAAAAAAAAAAAAAAAIIAAAAAAAAAAAAIIIAAAAAAAAAA
AAAAAAAAIIIIAAAAAAIIIIAAAAAAAAAAAAAAAIIIAAAAAAAAAAAIIIAAAAAAAAAA
AAAAAAAAIIIIAAAAAAIIIIAAAAAAAAAAAAAAAIIIIAAAAAAAAAAIIIAAAAAAAAAA
AAAAAAAAIIIIAAAAAAIIIIAAAAAAAAAAAAAAAIIIIAAIAAAAAAAIIIAAAAAAAAAA
AAAAAAAAIIIIAAAAAAIIIIAAAAAAAAAAAAAAAIIIIAAIIAAAAAAIIIAAAAAAAAAA
AAAAAAAAIIIIAAAAAAIIIIAAAAAAAAAAAAAAAIIIIAAIIIAAAAAIIIAAAAAAAAAA
AAAAAAAAIIIIAAAAAAIIIIAAAAAAAAAAAAAAAIIIIAAIIIIAAAAIIIAAAAAAAAAA
AAAAAAAAIIIIAAAAAAIIIIAAAAAAAAAAAAAAAIIIIAAIIIIIAAAIIIAAAAAAAAAA
AAAAAAAAIIIIAAAAAAIIIIAAAAAAAAAAAAAAAIIIIAAIIIIIIAAIIIAAAAAAAAAA
AAAAAAAAIIIIAAAAAAIIIIAAAAAAAAAAAAAAAIIIIAAIIIIIIAIIIIAAAAAAAAAA
AAAAAAAAIIIIAAAAAAIIIIAAAAAAAAAAAAAAAIIIIAAIIIIIIAIIIIIAAAAAAAAA
AAAAAAAAIIIIAAAAAAIIIIAAAAAAAAAAAAAAAIIIIAAIIIIIIAIIIIIIAAAAAAAA
AAAAAAAAIIIIAAAAAAIIIIAAAAAAAAAAAAAAAIIIIAAIIIIIIAIIIIIIIAAAAAAA
AAAAAAAAIIIIAAAAAAIIIIAAAAAAAAAAAAAAAIIIIAAIIIIIIAIIIIIIIIAAAAAA
IAAAAAAAIIIIAAAAAAIIIIAAAAAAAAAAAAAAAIIIIAAIIIIIIAIIIIIIIIAAAAAA
IIAAAAAAIIIIAAAAAAIIIIAAAAAAAAAAAAAAAIIIIAAIIIIIIAIIIIIIIIAAAAAA
IIIAAAAAIIIIAAAAAAIIIIAAAAAAAAAAAAAAAIIIIAAIIIIIIAIIIIIIIIAAAAAA
IIIIAAAAIIIIAAAAAAIIIIAAAAAAAAAAAAAAAIIIIAAIIIIIIAIIIIIIIIAAAAAA
IIIIIAAAIIIIAAAAAAIIIIAAAAAAAAAAAAAAAIIIIAAIIIIIIAIIIIIIIIAAAAAA
IIIIIIAAIIIIAAAAAAIIIIAAAAAAAAAAAAAAAIIIIAAIIIIIIAIIIIIIIIAAAAAA
IIIIIIIAIIIIAAAAAAIIIIAAAAAAAAAAAAAAAIIIIAAIIIIIIAIIIIIIIIAAAAAA
IIIIIIIIIIIIAAAAAAIIIIAAAAAAAAAAAAAAAIIIIAAIIIIIIAIIIIIIIIAAAAAA
IIIIIIIIIIIIIAAAAAIIIIAAAAAAAAAAAAAAAIIIIAAIIIIIIAIIIIIIIIAAAAAA
IIIIIIIIIIIIIIAAAAIIIIAAAAAAAAAAAAAAAIIIIAAIIIIIIAIIIIIIIIAAAAAA
IIIIIIIIIIIIIIIAAAIIIIAAAAAAAAAAAAAAAIIIIAAIIIIIIAIIIIIIIIAAAAAA
IIIIIIIIIIIIIIIIAAIIIIAAAAAAAAAAAAAAAIIIIAAIIIIIIAIIIIIIIIAAAAAA
IIIIIIIIIIIIIIIIIAIIIIAAAAAAAAAAAAAAAIIIIAAIIIIIIAIIIIIIIIAAAAAA
IIIIIIIIIIIIIIIIIIIIIIAAAAAAAAAAAAAAAIIIIAAIIIIIIAIIIIIIIIAAAAAA
IIIIIIIIIIIIIIIIIIIIIIIAAAAAAAAAAAAAAIIIIAAIIIIIIAIIIIIIIIAAAAAA
IIIIIIIIIIIIIIIIIIIIIIIIAAAAAAAAAAAAAIIIIAAIIIIIIAIIIIIIIIAAAAAA
IIIIIIIIIIIIIIIIIIIIIIIIIAAAAAAAAAAAAIIIIAAIIIIIIAIIIIIIIIAAAAAA
IIIIIIIIIIIIIIIIIIIIIIIIIIAAAAAAAAAAAIIIIAAIIIIIIAIIIIIIIIAAAAAA
IIIIIIIIIIIIIIIIIIIIIIIIIIIAAAAAAAAAAIIIIAAIIIIIIAIIIIIIIIAAAAAA
IIIIIIIIIIIIIIIIIIIIIIIIIIIIAAAAAAAAAIIIIAAIIIIIIAIIIIIIIIAAAAAA
IIIIIIIIIIIIIIIIIIIIIIIIIIIIIAAAAAAAAIIIIAAIIIIIIAIIIIIIIIAAAAAA
IIIIIIIIIIIIIIIIIIIIIIIIIIIIIIAAAAAAAIIIIAAIIIIIIAIIIIIIIIAAAAAA
IIIIIIIIIIIIIIIIIIIIIIIIIIIIIIIAAAAAAIIIIAAIIIIIIAIIIIIIIIAAAAAA
IIIIIIIIIIIIIIIIIIIIIIIIIIIIIIIIAAAAAIIIIAAIIIIIIAIIIIIIIIAAAAAA
IIIIIIIIIIIIIIIIIIIIIIIIIIIIIIIIIAAAAIIIIAAIIIIIIAIIIIIIIIAAAAAA
IIIIIIIIIIIIIIIIIIIIIIIIIIIIIIIIIIAAAIIIIAAIIIIIIAIIIIIIIIAAAAAA
IIIIIIIIIIIIIIIIIIIIIIIIIIIIIIIIIIIAAIIIIAAIIIIIIAIIIIIIIIAAAAAA
IIIIIIIIIIIIIIIIIIIIIIIIIIIIIIIIIIIIAIIIIAAIIIIIIAIIIIIIIIAAAAAA
IIIIIIIIIIIIIIIIIIIIIIIIIIIIIIIIIIIIIIIIIAAIIIIIIAIIIIIIIIAAAAAA
IIIIIIIIIIIIIIIIIIIIIIIIIIIIIIIIIIIIIIIIIIAIIIIIIAIIIIIIIIAAAAAA
IIIIIIIIIIIIIIIIIIIIIIIIIIIIIIIIIIIIIIIIIIIIIIIIIAIIIIIIIIAAAAAA
IIIIIIIIIIIIIIIIIIIIIIIIIIIIIIIIIIIIIIIIIIIIIIIIIIIIIIIIIIAAAAAA
IIIIIIIIIIIIIIIIIIIIIIIIIIIIIIIIIIIIIIIIIIIIIIIIIIIIIIIIIIIAAAAA
IIIIIIIIIIIIIIIIIIIIIIIIIIIIIIIIIIIIIIIIIIIIIIIIIIIIIIIIIIIIAAAA
IIIIIIIIIIIIIIIIIIIIIIIIIIIIIIIIIIIIIIIIIIIIIIIIIIIIIIIIIIIIIAAA
IIIIIIIIIIIIIIIIIIIIIIIIIIIIIIIIIIIIIIIIIIIIIIIIIIIIIIIIIIIIIIAA
IIIIIIIIIIIIIIIIIIIIIIIIIIIIIIIIIIIIIIIIIIIIIIIIIIIIIIIIIIIIIIIA
IIIIIIIIIIIIIIIIIIIIIIIIIIIIIIIIIIIIIIIIIIIIIIIIIIIIIIIIIIIIIIII
[MLOP] Prefetch Degree Mean: 3
[MLOP] Prefetch Degree SD: 0
[MLOP] Max Score Left Mean (%): 96.8089
[MLOP] Max Score Left SD (%): 0.173618
[MLOP] Max Score Right Mean (%): 99.9889
[MLOP] Max Score Right SD (%): 0.104822
CPU 0 L2C next line prefetcher final stats
LLC Next Line Prefetcher Final Stats: none

DRAM Statistics
 CHANNEL 0
 RQ ROW_BUFFER_HIT:      27277  ROW_BUFFER_MISS:        280
 DBUS_CONGESTED:       1292
 WQ ROW_BUFFER_HIT:          0  ROW_BUFFER_MISS:          0  FULL:          0

 AVG_CONGESTED_CYCLE: 5

CPU 0 Branch Prediction Accuracy: 87.4452% MPKI: 14.7828 Average ROB Occupancy at Mispredict: 26.3981

Branch types
NOT_BRANCH: 26467250 88.2242%
BRANCH_DIRECT_JUMP: 442188 1.47396%
BRANCH_INDIRECT: 0 0%
BRANCH_CONDITIONAL: 3090210 10.3007%
BRANCH_DIRECT_CALL: 0 0%
BRANCH_INDIRECT_CALL: 0 0%
BRANCH_RETURN: 0 0%
BRANCH_OTHER: 0 0%

